.title inverter ckt 
.INCLUDE TECHFILE30.TXT
 
MP1 NI A  VDD VDD PMOS W=260N L=130N
MP2 Y  B  N1  VDD PMOS W=260N L=130N
MN1 Y  A  0   0   NMOS W=130N L=130N
MN2 Y  B  0   0   NMOS W=130N L=130N
CL  Y  0  1P
VDD VDD 0 1.2
VA  A  0  PULSE(0 1.2 1N 1N 10N 20N)
VA  B  0  PULSE(0 1.2 0 1N 1N 20N 40N)
.TRAN 0.1N 500N
.PLOT V(Y) V(A) V(B)
.END